T42/data/state_estimation/ES_Dx_03_2040_W_Bd/ES_Dx_03_2040_W_Bd_t7.csv
bus,vm_pu,va_degree,p_mw,q_mvar
1,0.999994,-0.000290,86.768273,35.190029
7966,1.031474,-0.032272,-1.127379,-0.407306
7967,1.035001,-0.028356,-3.909623,-1.412328
7968,1.034889,-0.028348,-1.403089,-0.506871
7969,1.033782,-0.028275,-2.413843,-0.871998
7970,1.032941,-0.028846,-2.025129,-0.731521
7971,1.033931,-0.028480,-1.442006,-0.520840
7972,1.034987,-0.028099,-0.544259,-0.196658
7973,1.041705,-0.033695,-2.378541,-0.859222
7974,1.041550,-0.032533,-0.738672,-0.266862
7975,1.027490,-0.024242,-1.247494,-0.450705
7976,1.027557,-0.024891,-3.318679,-1.198770
7977,1.028100,-0.024522,-2.261925,-0.816988
7978,1.042476,-0.033278,-0.470047,-0.169828
7979,1.042201,-0.032859,-1.328956,-0.480054
7980,1.028490,-0.023764,-1.127445,-0.407264
7981,1.035411,-0.038773,-2.067434,-0.746831
7982,1.042515,-0.032470,-0.116619,-0.042096
7983,1.041260,-0.033304,-1.908626,-0.689426
7984,1.041088,-0.033389,-1.562212,-0.564356
7985,1.030582,-0.031664,-0.223860,-0.080854
7986,1.036020,-0.028646,-0.205488,-0.074212
7987,1.026514,-0.024500,-0.218751,-0.079014
7988,1.034829,-0.027397,-0.202830,-0.073213
7989,1.042085,-0.033040,-0.202659,-0.073257
7990,1.042536,-0.033020,-0.218689,-0.078937
7991,1.028346,-0.023688,-0.204080,-0.073738
7992,1.029272,-0.023559,-0.213496,-0.077167
7993,1.039328,-0.032822,-0.244642,-0.088338
7994,1.035945,-0.029146,-0.251210,-0.090748
7995,1.027861,-0.023151,-0.206348,-0.074508
7996,1.040915,-0.033063,-0.245074,-0.088506
7997,1.034212,-0.028046,-0.228110,-0.082403
7998,1.027205,-0.024172,-0.223831,-0.080930
7999,1.042717,-0.032707,-0.271340,-0.098025
8000,1.028024,-0.024069,-0.211005,-0.076155
8001,1.042449,-0.032591,-0.282102,-0.101960
8002,1.028962,-0.023741,-0.212473,-0.076775
8003,1.027611,-0.024334,-0.212406,-0.076639
8004,1.027773,-0.023475,-0.210475,-0.076051
8005,1.041577,-0.033756,-0.214777,-0.077550
8006,1.028023,-0.022811,-0.291125,-0.105209
8007,1.041048,-0.032673,-0.210900,-0.076186
8395,1.034446,-0.039103,-0.143715,-0.057581
8396,1.033872,-0.039368,-0.146057,-0.058553
8397,1.033622,-0.038812,-0.078697,-0.030838
8398,1.033659,-0.038977,-0.092457,-0.037012
8399,1.034818,-0.038790,-0.054795,-0.021691
8400,1.040296,-0.033684,-0.042626,-0.016501
8401,1.040837,-0.032870,-0.222218,-0.088785
8402,1.041375,-0.032791,-0.169844,-0.066441
8403,1.034756,-0.039313,-0.097324,-0.037771
8404,1.027520,-0.024384,-0.052856,-0.020840
8405,1.026982,-0.023403,-0.118412,-0.046781
8406,1.026831,-0.023874,-0.034407,-0.013189
8407,1.034498,-0.039082,-0.162223,-0.063228
8408,1.026580,-0.023592,-0.114563,-0.044869
8409,1.026501,-0.023434,-0.022423,-0.008472
8410,1.027855,-0.023408,-0.084999,-0.033668
8411,1.033368,-0.039168,-0.062066,-0.024169
8412,1.039822,-0.034212,-0.164691,-0.064142
8413,1.034323,-0.038965,-0.091574,-0.036343
8414,1.027613,-0.023881,-0.041451,-0.016089
8415,1.034467,-0.039703,-0.078999,-0.031053
8416,1.034423,-0.039779,-0.096471,-0.037440
8417,1.027541,-0.023669,-0.082106,-0.032372
8418,1.026535,-0.024138,-0.160482,-0.062579
8419,1.034163,-0.039049,-0.100014,-0.038722
8420,1.034637,-0.038944,-0.057422,-0.022964
8421,1.027072,-0.024428,-0.091080,-0.036389
8422,1.027820,-0.023779,-0.093953,-0.037651
8423,1.027021,-0.023888,-0.147465,-0.059101
8424,1.041049,-0.033932,-0.224666,-0.089670
8425,1.038884,-0.032752,-0.055752,-0.022311
8426,1.041890,-0.032879,-0.131374,-0.052119
8427,1.042542,-0.033611,-0.041457,-0.016149
8428,1.034924,-0.038446,-0.029011,-0.011066
8429,1.035108,-0.039331,-0.220890,-0.087389
8430,1.027035,-0.023893,-0.059170,-0.023733
8431,1.027540,-0.023918,-0.125198,-0.050205
8432,1.039475,-0.033250,-0.163730,-0.063842
8433,1.039352,-0.033135,-0.164744,-0.064314
8434,1.041544,-0.033422,-0.103812,-0.040383
8435,1.027649,-0.023694,-0.157195,-0.061186
8436,1.029450,-0.022929,-0.059847,-0.023076
8437,1.027376,-0.024120,-0.122887,-0.048426
8438,1.038587,-0.033139,-0.037120,-0.014313
8439,1.026543,-0.023977,-0.038588,-0.014877
8440,1.039341,-0.032891,-0.208894,-0.083213
8441,1.039552,-0.033855,-0.133669,-0.053092
8442,1.041690,-0.032568,-0.042295,-0.016483
8443,1.041613,-0.032759,-0.042150,-0.016280
8444,1.041928,-0.032063,-0.189580,-0.074638
8445,1.034678,-0.038871,-0.046521,-0.018178
8446,1.040561,-0.033170,-2.800255,-0.911162
8447,1.042686,-0.032381,-0.154608,-0.060507
8448,1.041916,-0.033181,-0.047613,-0.018685
8449,1.042613,-0.033307,-0.107586,-0.041883
8450,1.044028,-0.031990,-0.000008,-0.000038
8451,1.040864,-0.033116,-0.050353,-0.019890
8452,1.039984,-0.032835,-0.141503,-0.056489
8453,1.027866,-0.023792,-0.098200,-0.038089
8454,1.041952,-0.032146,-0.086114,-0.034309
8455,1.041183,-0.033600,-0.095304,-0.036840
8456,1.035294,-0.039504,-0.067029,-0.026090
8457,1.035579,-0.039264,-0.006178,-0.002294
8458,1.028061,-0.023902,-0.072444,-0.028319
8459,1.040908,-0.032765,-0.058909,-0.023585
8460,1.027577,-0.023029,-0.058443,-0.023241
8461,1.027744,-0.024142,-0.022434,-0.008483
8462,1.028957,-0.023164,-0.120501,-0.047354
8463,1.042321,-0.033734,-0.055778,-0.022199
8464,1.042111,-0.032952,-0.128008,-0.050666
8465,1.041429,-0.032837,-0.153428,-0.059492
8466,1.040788,-0.032391,-0.228885,-0.091583
8467,1.041210,-0.033226,-0.010151,-0.003639
8468,1.027533,-0.023361,-0.077911,-0.030714
8469,1.028125,-0.025268,-0.161509,-0.063056
8470,1.042087,-0.032259,-0.116843,-0.045965
8471,1.041145,-0.033298,-0.171398,-0.066825
8472,1.041875,-0.032500,-0.152781,-0.059136
8473,1.027915,-0.023778,-0.082655,-0.032487
8474,1.027996,-0.023537,-0.061085,-0.023613
8475,1.042080,-0.032610,-0.104473,-0.040581
8476,1.027686,-0.024124,-0.021038,-0.007880
8477,1.028713,-0.023719,-0.109940,-0.043439
8478,1.041633,-0.032572,-0.093944,-0.037542
8479,1.041875,-0.033196,-0.043857,-0.016951
8480,1.028766,-0.024129,-0.053311,-0.021209
8481,1.027845,-0.024214,-0.150757,-0.060364
8482,1.029457,-0.023757,-0.135549,-0.053686
8483,1.028224,-0.022567,-0.191553,-0.075471
8484,1.042768,-0.033693,-0.128004,-0.051138
8485,1.028424,-0.023834,-0.056838,-0.022612
8486,1.028817,-0.023690,0.000012,0.000013
8487,1.043182,-0.032058,-0.197602,-0.078135
8488,1.042835,-0.031924,-0.059582,-0.022895
8489,1.027888,-0.023832,-0.037884,-0.014559
8490,1.027917,-0.023085,-0.048155,-0.019019
8491,1.028347,-0.023510,-0.115325,-0.045235
8492,1.028956,-0.024288,-0.091932,-0.036671
8493,1.043072,-0.032321,-0.126461,-0.050010
8494,1.042680,-0.031720,-0.031654,-0.012101
8495,1.042641,-0.032706,-0.092286,-0.036896
8496,1.040714,-0.032490,-0.053172,-0.020949
8497,1.042771,-0.032779,-0.172296,-0.067750
8498,1.027775,-0.023287,-0.202551,-0.080285
8499,1.041317,-0.033251,-0.090533,-0.036153
8500,1.040906,-0.033264,-0.229848,-0.092072
8501,1.041261,-0.033720,-0.058509,-0.023280
8502,1.042360,-0.032442,-0.104431,-0.040382
8503,1.028531,-0.023504,-0.211994,-0.084210
8504,1.042561,-0.032688,-0.046920,-0.018341
8505,1.042449,-0.033085,-0.091271,-0.036411
8506,1.042348,-0.032543,-0.200589,-0.079563
8507,1.042451,-0.032562,-0.048521,-0.019072
8508,1.028226,-0.023961,-0.059055,-0.023541
8509,1.027807,-0.023901,-0.055526,-0.021965
8510,1.042419,-0.033423,-0.054579,-0.021555
8511,1.028848,-0.024405,-0.145627,-0.058217
8512,1.042576,-0.033655,-0.137709,-0.055059
8513,1.042376,-0.033283,-0.202982,-0.080369
8514,1.043631,-0.032429,-0.132614,-0.052763
8515,1.042918,-0.032551,-0.164085,-0.063912
8516,1.027634,-0.023719,-0.068787,-0.026709
8517,1.043549,-0.032470,-0.194577,-0.076901
8518,1.043664,-0.031482,-0.063674,-0.024657
8519,1.028592,-0.023806,-0.194101,-0.076538
8520,1.042397,-0.031673,-0.080149,-0.031663
8521,1.028408,-0.023539,-0.202173,-0.080093
8522,1.027982,-0.023821,-0.086641,-0.034309
8523,1.027951,-0.023258,-0.136966,-0.054445
8524,1.028457,-0.023728,-0.140905,-0.056218
8525,1.028418,-0.023224,-0.037922,-0.014557
8526,1.028627,-0.023823,-0.117604,-0.046341
8527,1.042494,-0.032802,-0.059648,-0.022906
8528,1.027648,-0.022769,-0.030009,-0.011378
8529,1.028208,-0.023395,-0.050243,-0.019730
8530,1.043314,-0.032878,-0.180032,-0.070404
8531,1.041771,-0.032717,-0.056793,-0.022622
8532,1.027901,-0.023804,-0.052208,-0.020718
8533,1.042745,-0.032331,-0.013555,-0.004992
8534,1.029309,-0.023725,-0.134062,-0.053302
8535,1.043063,-0.032082,-0.049126,-0.019251
8536,1.042287,-0.032382,-0.035966,-0.013782
8537,1.029383,-0.023249,-0.056931,-0.022732
8538,1.027960,-0.022523,-0.056846,-0.022622
8539,1.040172,-0.032589,-0.224316,-0.089888
8540,1.040615,-0.032777,-0.076501,-0.029967
8541,1.041150,-0.033273,-0.118636,-0.046468
8542,1.042463,-0.033412,-0.089380,-0.035586
8543,1.028289,-0.022627,-0.115279,-0.045324
8544,1.027639,-0.024638,-0.148842,-0.059759
8545,1.041306,-0.033024,-0.102711,-0.039873
8546,1.028297,-0.023393,-0.215532,-0.086111
8547,1.028746,-0.023263,-0.116832,-0.045857
8548,1.028660,-0.023241,-0.170696,-0.066633
8549,1.040502,-0.033947,-0.114447,-0.044729
8550,1.040424,-0.032119,-0.116581,-0.046006
8551,1.028199,-0.023494,-0.027001,-0.010132
8552,1.040438,-0.033782,-0.033673,-0.012914
8553,1.043268,-0.032031,-0.065913,-0.025486
8554,1.041983,-0.031959,-0.038277,-0.014821
8555,1.041662,-0.034120,-0.140649,-0.056102
8556,1.040963,-0.032351,-0.050121,-0.019739
8557,1.028410,-0.023747,-0.104842,-0.040867
8558,1.042718,-0.032832,-0.140404,-0.055970
8559,1.042104,-0.032809,-0.031931,-0.012181
8560,1.039580,-0.032962,-0.125293,-0.049433
8561,1.028036,-0.023147,-0.052020,-0.020606
8562,1.027796,-0.023348,-0.088064,-0.035123
8563,1.040423,-0.032748,-0.108823,-0.042354
8564,1.040775,-0.033084,-0.042592,-0.016551
8565,1.041171,-0.033139,-0.127424,-0.050191
8566,1.027727,-0.023416,-0.081107,-0.032033
8567,1.043450,-0.032692,-0.190217,-0.074842
8568,1.042657,-0.032235,-0.136341,-0.054156
8569,1.041364,-0.032602,-0.117213,-0.045981
8570,1.027655,-0.024205,-0.118668,-0.046823
8571,1.028652,-0.023827,-0.133534,-0.052925
8572,1.027781,-0.024012,-0.066593,-0.025834
8573,1.042243,-0.031972,-0.078789,-0.030994
8574,1.027133,-0.024000,-0.195596,-0.077240
8575,1.041842,-0.032057,-0.120109,-0.047235
8576,1.028120,-0.023607,-0.058405,-0.023250
8577,1.043174,-0.032740,-0.086549,-0.034411
8578,1.027317,-0.024112,-0.018577,-0.006912
8579,1.043079,-0.032544,-0.120865,-0.048145
8580,1.042667,-0.032394,-0.044148,-0.017204
8581,1.027852,-0.023652,-0.045348,-0.017672
8582,1.041770,-0.033142,-0.094651,-0.037827
8583,1.042519,-0.032831,-0.020462,-0.007687
8584,1.028133,-0.023374,-0.127087,-0.050198
8585,1.041103,-0.034330,-0.137184,-0.054555
8586,1.040633,-0.033499,-0.042714,-0.016646
8587,1.027546,-0.023351,-0.129087,-0.051146
8588,1.041746,-0.032541,-0.216057,-0.086196
8589,1.028157,-0.024335,-0.061423,-0.023733
8590,1.027521,-0.024214,-0.036562,-0.014083
8591,1.041864,-0.033092,-0.142699,-0.057031
8592,1.042018,-0.032555,-0.149032,-0.059839
8593,1.034940,-0.028239,-0.224605,-0.089571
8594,1.033582,-0.028267,-0.121245,-0.048047
8595,1.027257,-0.024030,-0.149591,-0.060362
8596,1.028355,-0.024521,-0.123166,-0.048665
8597,1.035194,-0.028466,-0.088258,-0.035050
8598,1.028205,-0.024537,-0.177737,-0.069601
8599,1.041720,-0.032166,-0.049685,-0.019597
8600,1.028527,-0.023602,-0.168456,-0.066134
8601,1.028051,-0.024223,-0.100806,-0.039182
8602,1.027387,-0.023347,-0.033809,-0.012916
8603,1.027269,-0.024687,-0.210247,-0.083734
8604,1.027951,-0.023870,-0.141095,-0.056242
8605,1.042139,-0.032347,-0.055859,-0.022279
8606,1.041241,-0.032390,-0.072247,-0.028216
8607,1.039851,-0.032179,-0.089047,-0.035346
8608,1.028054,-0.024005,-0.055411,-0.022010
8609,1.042691,-0.032641,-0.158393,-0.061622
8610,1.034777,-0.027017,-0.087248,-0.034654
8611,1.028023,-0.024107,-0.161233,-0.062795
8612,1.041811,-0.032835,-0.048311,-0.018958
8613,1.042307,-0.032963,-0.036538,-0.014045
8614,1.027762,-0.025312,-0.224896,-0.090295
8615,1.028142,-0.024447,-0.097317,-0.039477
8616,1.028725,-0.023599,-0.153253,-0.059545
8617,1.028276,-0.024395,-0.100541,-0.039131
8618,1.027708,-0.023868,-0.099990,-0.038790
8619,1.028214,-0.022989,-0.050549,-0.019933
8620,1.027798,-0.024427,-0.056849,-0.022683
8621,1.042877,-0.033016,-0.045703,-0.017851
8622,1.037982,-0.032328,-0.157751,-0.061294
8623,1.026305,-0.023788,-0.130610,-0.051721
8624,1.038066,-0.033006,-2.841240,-0.944560
8625,1.035602,-0.027180,-0.055751,-0.022153
8626,1.034944,-0.027845,-0.065746,-0.025511
8627,1.042293,-0.032639,-0.074101,-0.029105
8628,1.041201,-0.032653,-0.123266,-0.048320
8629,1.041585,-0.033386,-0.063007,-0.024384
8630,1.041743,-0.033811,-0.095136,-0.037911
8631,1.041644,-0.033141,-0.052454,-0.020788
8632,1.027584,-0.024353,-0.018761,-0.006985
8633,1.027917,-0.024199,-0.059632,-0.023891
8634,1.041800,-0.032571,-0.146794,-0.058527
8635,1.028450,-0.023970,-0.141038,-0.056256
8636,1.028281,-0.023426,-0.153719,-0.059599
8637,1.041225,-0.033927,-0.193708,-0.076530
8638,1.041419,-0.033768,-0.084325,-0.033350
8639,1.040828,-0.033582,-0.083411,-0.032987
8640,1.040648,-0.033077,-0.112965,-0.044182
8641,1.027338,-0.024061,-0.212279,-0.084355
8642,1.043193,-0.033221,-0.071580,-0.028026
8643,1.034710,-0.026976,-0.050780,-0.019844
8644,1.027753,-0.025036,-0.065929,-0.025597
8645,1.034255,-0.026768,-0.128888,-0.051172
8646,1.040997,-0.033743,-0.049136,-0.019161
8647,1.041919,-0.033584,-0.071037,-0.027844
8648,1.035443,-0.027245,-0.148090,-0.059436
8649,1.042105,-0.032305,-0.076344,-0.029911
8650,1.028331,-0.024362,-0.179089,-0.070235
8651,1.042000,-0.032945,-0.090145,-0.035885
8652,1.034337,-0.028462,-0.101834,-0.039634
8653,1.034719,-0.028496,-0.036571,-0.014057
8654,1.028052,-0.024119,-0.030491,-0.011681
8655,1.041103,-0.033715,-0.118856,-0.046969
8656,1.042147,-0.033489,-0.087502,-0.034818
8657,1.027360,-0.023565,-0.239157,-0.096693
8658,1.035217,-0.027979,-0.136992,-0.054314
8659,1.027878,-0.024160,-0.082814,-0.032980
8660,1.035000,-0.028602,-0.055436,-0.022090
8661,1.033970,-0.028624,-0.079902,-0.031593
8662,1.039594,-0.033735,-2.716217,-0.879814
8663,1.040333,-0.033016,-0.077507,-0.030550
8664,1.035390,-0.028074,-0.035406,-0.013522
8665,1.041086,-0.032531,-0.092645,-0.036948
8666,1.027657,-0.024146,-0.068246,-0.026630
8667,1.026797,-0.024705,-0.223423,-0.089162
8668,1.034792,-0.027972,-0.172529,-0.067434
8669,1.041340,-0.032659,-0.176176,-0.069560
8670,1.035045,-0.028250,-0.115583,-0.045304
8671,1.027993,-0.023936,-0.082930,-0.032913
8672,1.034832,-0.028015,-0.162593,-0.063467
8673,1.034551,-0.028254,-0.047179,-0.018510
8674,1.034416,-0.028956,-0.042111,-0.016302
8675,1.035420,-0.028042,-0.078728,-0.030856
8676,1.035446,-0.028221,-0.056273,-0.022481
8677,1.028472,-0.022896,-0.118406,-0.046501
8678,1.026994,-0.024351,-0.094416,-0.037844
8679,1.034763,-0.029340,-0.078447,-0.030892
8680,1.035409,-0.028820,-0.163099,-0.063212
8681,1.035026,-0.028149,-0.136037,-0.053937
8682,1.034522,-0.028847,-0.057664,-0.022920
8683,1.026620,-0.023830,-0.041818,-0.016210
8684,1.027045,-0.024028,-0.157337,-0.061130
8685,1.035843,-0.027663,-0.174421,-0.068608
8686,1.035282,-0.028310,-0.051304,-0.020147
8687,1.041169,-0.033269,-0.038745,-0.015038
8688,1.035906,-0.028109,-0.053827,-0.021271
8689,1.036277,-0.027703,-0.000033,-0.000014
8690,1.035797,-0.028409,-2.862132,-0.934158
8691,1.035195,-0.028520,-0.089677,-0.035664
8692,1.034195,-0.028136,-0.038572,-0.014837
8693,1.034429,-0.026915,-0.122016,-0.048203
8694,1.036308,-0.027361,-0.179839,-0.070739
8695,1.027415,-0.023989,-0.126128,-0.049652
8696,1.034972,-0.028639,-0.054306,-0.021413
8697,1.034028,-0.029163,-0.063160,-0.024439
8698,1.035488,-0.027486,-0.166525,-0.065016
8699,1.035433,-0.027081,-0.036841,-0.014077
8700,1.035724,-0.027961,-0.155906,-0.060502
8701,1.033779,-0.029416,-0.107023,-0.041736
8702,1.034786,-0.029259,-0.163553,-0.063471
8703,1.035991,-0.027396,-0.041786,-0.016161
8704,1.033519,-0.028284,-0.058225,-0.023135
8705,1.035298,-0.027873,-0.130373,-0.051949
8706,1.026896,-0.023648,-0.127363,-0.050289
8707,1.036090,-0.028023,-0.093746,-0.037592
8708,1.036144,-0.027374,-0.061693,-0.023821
8709,1.034107,-0.028216,-0.166054,-0.064672
8710,1.035858,-0.029247,-0.048962,-0.019248
8711,1.027439,-0.023178,-0.057735,-0.022947
8712,1.033584,-0.028932,-0.050609,-0.019858
8713,1.036207,-0.028463,-0.191250,-0.075344
8714,1.035364,-0.027974,-0.149345,-0.059901
8715,1.033729,-0.029175,-0.087170,-0.034778
8716,1.035937,-0.028144,-0.116782,-0.045805
8717,1.036290,-0.027638,-0.079716,-0.031474
8718,1.035815,-0.028473,-0.228672,-0.091467
8719,1.034912,-0.027908,-0.111662,-0.043742
8720,1.034891,-0.027620,-0.059824,-0.023073
8721,1.034032,-0.028881,-0.051785,-0.020516
8722,1.033904,-0.028339,-0.057923,-0.023138
8723,1.035792,-0.027835,-0.079633,-0.031367
8724,1.035319,-0.028508,-0.071541,-0.027852
8725,1.033726,-0.027471,-0.081882,-0.032312
8726,1.035381,-0.028414,-0.190491,-0.074980
8727,1.036329,-0.028708,-0.035647,-0.013709
8728,1.034903,-0.027576,-0.148858,-0.059989
8729,1.034301,-0.028889,-0.071437,-0.028017
8730,1.035229,-0.028119,-0.082561,-0.032569
8731,1.035081,-0.027996,-0.064952,-0.025166
8732,1.034674,-0.028796,-0.150456,-0.060264
8733,1.036770,-0.028271,-0.088265,-0.035193
8734,1.035962,-0.027938,-0.214015,-0.085587
8735,1.035063,-0.027053,-0.149081,-0.059801
8736,1.035803,-0.027535,-0.049075,-0.019279
8737,1.034165,-0.029104,-0.068125,-0.026477
8738,1.033718,-0.028972,-0.042100,-0.016426
8739,1.035773,-0.028743,-0.125020,-0.049346
8740,1.035037,-0.027571,-0.197789,-0.078219
8741,1.036737,-0.028396,-0.057870,-0.023193
8742,1.035615,-0.027697,-0.085521,-0.033917
8743,1.035187,-0.028705,-0.113959,-0.044398
8744,1.034345,-0.029438,-0.026185,-0.009960
8745,1.035588,-0.028239,-0.078357,-0.030931
8746,1.034803,-0.028924,-0.078867,-0.031013
8747,1.030203,-0.031292,-0.074039,-0.028940
8748,1.030794,-0.031685,-0.101984,-0.039462
8749,1.035527,-0.027647,-0.047018,-0.018442
8750,1.035599,-0.026996,-0.058331,-0.023318
8751,1.031063,-0.031362,-0.042594,-0.016532
8752,1.030306,-0.032299,-0.236034,-0.094071
8753,1.034920,-0.027606,-0.071127,-0.027841
8754,1.034429,-0.027827,-0.060015,-0.023124
8755,1.035318,-0.028216,-0.148350,-0.059381
8756,1.030387,-0.031652,-0.148087,-0.058785
8757,1.035263,-0.027828,-0.055584,-0.022159
8758,1.035462,-0.027323,-0.055683,-0.022088
8759,1.030346,-0.031260,-0.067968,-0.026446
8760,1.034482,-0.026832,-0.053758,-0.021193
8761,1.035453,-0.027428,-0.158039,-0.062014
8762,1.034122,-0.029237,-0.053449,-0.021002
8763,1.034873,-0.027711,-0.124236,-0.049054
8764,1.031162,-0.032434,-0.023825,-0.008990
8765,1.035632,-0.027891,-0.036343,-0.013905
8766,1.035128,-0.027808,-0.150068,-0.060379
8767,1.030476,-0.030904,-0.044855,-0.017421
8768,1.030691,-0.031976,-0.092449,-0.036693
8769,1.031376,-0.031670,-0.186007,-0.072585
8770,1.031304,-0.031982,-0.226866,-0.089735
8771,1.030335,-0.032133,-0.120024,-0.046972
8772,1.031162,-0.032008,-0.061949,-0.023959
8773,1.035173,-0.028552,-0.027156,-0.010283
8774,1.031632,-0.032326,-0.076895,-0.030141
8775,1.035430,-0.028612,-0.120590,-0.047724
8776,1.030799,-0.031938,-0.085447,-0.033702
8777,1.030958,-0.031969,-0.054452,-0.021599
8778,1.030378,-0.031791,-0.060434,-0.023242
8779,1.035799,-0.028369,-0.185248,-0.073102
8780,1.030915,-0.031309,-0.068944,-0.026863
8781,1.034432,-0.027343,-0.091584,-0.036489
8782,1.034333,-0.026617,-0.029092,-0.011046
8783,1.031238,-0.031461,-0.160804,-0.062247
8784,1.030639,-0.030775,-0.029043,-0.011102
8785,1.009294,-0.006980,0.000026,0.000051
8786,1.008875,-0.008623,0.000033,0.000030
8787,1.009081,-0.008247,0.000004,-0.000035
8788,1.008860,-0.007162,-0.000125,0.000059
